51351714
  -OEChem-02142322332D

130134  0     1  0  0  0  0  0999 V2000
    9.0981   -1.1755    0.0000 O   0  0  0  0  0  0  0  0  0  0  0  0
    7.3660   -4.1755    0.0000 O   0  0  0  0  0  0  0  0  0  0  0  0
   10.8301    1.8245    0.0000 O   0  0  0  0  0  0  0  0  0  0  0  0
    9.0981    1.8245    0.0000 O   0  0  0  0  0  0  0  0  0  0  0  0
    6.0000   -3.8095    0.0000 O   0  0  0  0  0  0  0  0  0  0  0  0
    7.3660   -1.1755    0.0000 O   0  0  0  0  0  0  0  0  0  0  0  0
   12.5622    2.8245    0.0000 O   0  0  0  0  0  0  0  0  0  0  0  0
   10.8301    4.8245    0.0000 O   0  0  0  0  0  0  0  0  0  0  0  0
    7.3660   -0.1755    0.0000 O   0  0  0  0  0  0  0  0  0  0  0  0
    9.0981   -3.1755    0.0000 O   0  0  0  0  0  0  0  0  0  0  0  0
    5.6340   -3.1755    0.0000 O   0  0  0  0  0  0  0  0  0  0  0  0
    4.5000   -6.4076    0.0000 O   0  0  0  0  0  0  0  0  0  0  0  0
   13.4282    4.3245    0.0000 O   0  0  0  0  0  0  0  0  0  0  0  0
    9.0981    2.8245    0.0000 O   0  0  0  0  0  0  0  0  0  0  0  0
    5.0000   -2.0774    0.0000 O   0  0  0  0  0  0  0  0  0  0  0  0
    9.0981    4.8245    0.0000 O   0  0  0  0  0  0  0  0  0  0  0  0
    7.3660    2.8245    0.0000 O   0  0  0  0  0  0  0  0  0  0  0  0
    5.6340   -0.1755    0.0000 O   0  0  0  0  0  0  0  0  0  0  0  0
    7.3660   -6.1755    0.0000 O   0  0  0  0  0  0  0  0  0  0  0  0
   14.2942    1.8245    0.0000 O   0  0  0  0  0  0  0  0  0  0  0  0
    2.7943   -3.2442    0.0000 O   0  0  0  0  0  0  0  0  0  0  0  0
   12.5622    5.8245    0.0000 O   0  0  0  0  0  0  0  0  0  0  0  0
    8.2320   -4.6755    0.0000 O   0  0  0  0  0  0  0  0  0  0  0  0
   16.0263    2.8245    0.0000 O   0  0  0  0  0  0  0  0  0  0  0  0
   16.0263    4.8245    0.0000 O   0  0  0  0  0  0  0  0  0  0  0  0
   12.5622   -0.1755    0.0000 O   0  0  0  0  0  0  0  0  0  0  0  0
    2.4470   -1.2746    0.0000 O   0  0  0  0  0  0  0  0  0  0  0  0
   15.1603    6.3245    0.0000 O   0  0  0  0  0  0  0  0  0  0  0  0
    3.5000   -6.4076    0.0000 O   0  0  0  0  0  0  0  0  0  0  0  0
   10.8301   -0.1755    0.0000 N   0  0  0  0  0  0  0  0  0  0  0  0
    3.5000   -4.6755    0.0000 N   0  0  0  0  0  0  0  0  0  0  0  0
    9.0981   -0.1755    0.0000 C   0  0  2  0  0  0  0  0  0  0  0  0
    9.9641    0.3245    0.0000 C   0  0  2  0  0  0  0  0  0  0  0  0
    7.3660   -3.1755    0.0000 C   0  0  2  0  0  0  0  0  0  0  0  0
    9.9641    1.3245    0.0000 C   0  0  2  0  0  0  0  0  0  0  0  0
    8.2320    0.3245    0.0000 C   0  0  1  0  0  0  0  0  0  0  0  0
    8.2320   -2.6755    0.0000 C   0  0  2  0  0  0  0  0  0  0  0  0
    8.2320   -1.6755    0.0000 C   0  0  2  0  0  0  0  0  0  0  0  0
    6.5000   -4.6755    0.0000 C   0  0  1  0  0  0  0  0  0  0  0  0
   10.8301    2.8245    0.0000 C   0  0  1  0  0  0  0  0  0  0  0  0
    6.5000   -2.6755    0.0000 C   0  0  2  0  0  0  0  0  0  0  0  0
    4.5000   -4.6755    0.0000 C   0  0  1  0  0  0  0  0  0  0  0  0
    5.0000   -3.8095    0.0000 C   0  0  2  0  0  0  0  0  0  0  0  0
    8.2320    1.3245    0.0000 C   0  0  1  0  0  0  0  0  0  0  0  0
   11.6962    3.3245    0.0000 C   0  0  2  0  0  0  0  0  0  0  0  0
    6.0000   -5.5415    0.0000 C   0  0  0  0  0  0  0  0  0  0  0  0
    5.0000   -5.5415    0.0000 C   0  0  2  0  0  0  0  0  0  0  0  0
    6.5000   -1.6755    0.0000 C   0  0  1  0  0  0  0  0  0  0  0  0
    9.9641    3.3245    0.0000 C   0  0  2  0  0  0  0  0  0  0  0  0
   11.6962    4.3245    0.0000 C   0  0  1  0  0  0  0  0  0  0  0  0
    4.5000   -2.9435    0.0000 C   0  0  1  0  0  0  0  0  0  0  0  0
    9.9641    4.3245    0.0000 C   0  0  1  0  0  0  0  0  0  0  0  0
    7.3660    1.8245    0.0000 C   0  0  0  0  0  0  0  0  0  0  0  0
   13.4282    3.3245    0.0000 C   0  0  2  0  0  0  0  0  0  0  0  0
    5.6340   -1.1755    0.0000 C   0  0  0  0  0  0  0  0  0  0  0  0
    7.3660   -5.1755    0.0000 C   0  0  0  0  0  0  0  0  0  0  0  0
   14.2942    2.8245    0.0000 C   0  0  1  0  0  0  0  0  0  0  0  0
    3.5603   -2.6013    0.0000 C   0  0  1  0  0  0  0  0  0  0  0  0
   12.5622    4.8245    0.0000 C   0  0  0  0  0  0  0  0  0  0  0  0
   15.1603    3.3245    0.0000 C   0  0  2  0  0  0  0  0  0  0  0  0
   15.1603    4.3245    0.0000 C   0  0  1  0  0  0  0  0  0  0  0  0
   14.2942    4.8245    0.0000 C   0  0  1  0  0  0  0  0  0  0  0  0
   11.6962    0.3245    0.0000 C   0  0  0  0  0  0  0  0  0  0  0  0
    3.3867   -1.6166    0.0000 C   0  0  0  0  0  0  0  0  0  0  0  0
    3.0000   -5.5415    0.0000 C   0  0  0  0  0  0  0  0  0  0  0  0
   14.2942    5.8245    0.0000 C   0  0  0  0  0  0  0  0  0  0  0  0
   11.6962    1.3245    0.0000 C   0  0  0  0  0  0  0  0  0  0  0  0
    2.0000   -5.5415    0.0000 C   0  0  0  0  0  0  0  0  0  0  0  0
    8.5611   -0.4855    0.0000 H   0  0  0  0  0  0  0  0  0  0  0  0
    9.9641   -0.2955    0.0000 H   0  0  0  0  0  0  0  0  0  0  0  0
    6.8291   -3.4855    0.0000 H   0  0  0  0  0  0  0  0  0  0  0  0
   10.5010    1.0145    0.0000 H   0  0  0  0  0  0  0  0  0  0  0  0
    7.6951    0.6345    0.0000 H   0  0  0  0  0  0  0  0  0  0  0  0
    8.2320   -3.2955    0.0000 H   0  0  0  0  0  0  0  0  0  0  0  0
    8.7690   -1.9855    0.0000 H   0  0  0  0  0  0  0  0  0  0  0  0
   11.3671    2.5145    0.0000 H   0  0  0  0  0  0  0  0  0  0  0  0
    6.5000   -3.2955    0.0000 H   0  0  0  0  0  0  0  0  0  0  0  0
    4.1900   -4.1386    0.0000 H   0  0  0  0  0  0  0  0  0  0  0  0
    5.4250   -4.5456    0.0000 H   0  0  0  0  0  0  0  0  0  0  0  0
    8.2320    1.9445    0.0000 H   0  0  0  0  0  0  0  0  0  0  0  0
   11.6962    2.7045    0.0000 H   0  0  0  0  0  0  0  0  0  0  0  0
    5.8923   -6.1521    0.0000 H   0  0  0  0  0  0  0  0  0  0  0  0
    6.5826   -5.7536    0.0000 H   0  0  0  0  0  0  0  0  0  0  0  0
    4.3800   -5.5415    0.0000 H   0  0  0  0  0  0  0  0  0  0  0  0
    6.5000   -1.0555    0.0000 H   0  0  0  0  0  0  0  0  0  0  0  0
    9.9641    2.7045    0.0000 H   0  0  0  0  0  0  0  0  0  0  0  0
   11.6962    4.9445    0.0000 H   0  0  0  0  0  0  0  0  0  0  0  0
    5.1200   -2.9435    0.0000 H   0  0  0  0  0  0  0  0  0  0  0  0
    9.9641    4.9445    0.0000 H   0  0  0  0  0  0  0  0  0  0  0  0
   10.8301   -0.7955    0.0000 H   0  0  0  0  0  0  0  0  0  0  0  0
    6.7554    1.9322    0.0000 H   0  0  0  0  0  0  0  0  0  0  0  0
    7.1540    1.2419    0.0000 H   0  0  0  0  0  0  0  0  0  0  0  0
   13.4282    2.7045    0.0000 H   0  0  0  0  0  0  0  0  0  0  0  0
    5.0234   -1.0678    0.0000 H   0  0  0  0  0  0  0  0  0  0  0  0
    5.4219   -1.7581    0.0000 H   0  0  0  0  0  0  0  0  0  0  0  0
    3.1900   -4.1386    0.0000 H   0  0  0  0  0  0  0  0  0  0  0  0
   14.8312    2.5145    0.0000 H   0  0  0  0  0  0  0  0  0  0  0  0
    2.9777   -2.3893    0.0000 H   0  0  0  0  0  0  0  0  0  0  0  0
   12.7742    4.2419    0.0000 H   0  0  0  0  0  0  0  0  0  0  0  0
   13.1728    4.9322    0.0000 H   0  0  0  0  0  0  0  0  0  0  0  0
   15.1603    2.7045    0.0000 H   0  0  0  0  0  0  0  0  0  0  0  0
    6.8291    0.1345    0.0000 H   0  0  0  0  0  0  0  0  0  0  0  0
    9.6350   -2.8655    0.0000 H   0  0  0  0  0  0  0  0  0  0  0  0
   15.6972    4.0145    0.0000 H   0  0  0  0  0  0  0  0  0  0  0  0
   13.7573    5.1345    0.0000 H   0  0  0  0  0  0  0  0  0  0  0  0
    5.0970   -2.8655    0.0000 H   0  0  0  0  0  0  0  0  0  0  0  0
    4.8100   -6.9445    0.0000 H   0  0  0  0  0  0  0  0  0  0  0  0
    8.5611    3.1345    0.0000 H   0  0  0  0  0  0  0  0  0  0  0  0
    4.6900   -1.5405    0.0000 H   0  0  0  0  0  0  0  0  0  0  0  0
    4.0067   -1.6166    0.0000 H   0  0  0  0  0  0  0  0  0  0  0  0
    3.4943   -1.0061    0.0000 H   0  0  0  0  0  0  0  0  0  0  0  0
    9.0981    5.4445    0.0000 H   0  0  0  0  0  0  0  0  0  0  0  0
   14.0822    6.4071    0.0000 H   0  0  0  0  0  0  0  0  0  0  0  0
   13.6836    5.7168    0.0000 H   0  0  0  0  0  0  0  0  0  0  0  0
    6.8291    3.1345    0.0000 H   0  0  0  0  0  0  0  0  0  0  0  0
    5.0970    0.1345    0.0000 H   0  0  0  0  0  0  0  0  0  0  0  0
    7.9030   -6.4855    0.0000 H   0  0  0  0  0  0  0  0  0  0  0  0
   14.8312    1.5145    0.0000 H   0  0  0  0  0  0  0  0  0  0  0  0
    2.2116   -3.0321    0.0000 H   0  0  0  0  0  0  0  0  0  0  0  0
   12.3162    1.3245    0.0000 H   0  0  0  0  0  0  0  0  0  0  0  0
   11.6962    1.9445    0.0000 H   0  0  0  0  0  0  0  0  0  0  0  0
   11.0762    1.3245    0.0000 H   0  0  0  0  0  0  0  0  0  0  0  0
   12.0252    6.1345    0.0000 H   0  0  0  0  0  0  0  0  0  0  0  0
   16.5632    3.1345    0.0000 H   0  0  0  0  0  0  0  0  0  0  0  0
   16.5632    4.5145    0.0000 H   0  0  0  0  0  0  0  0  0  0  0  0
    2.0000   -4.9215    0.0000 H   0  0  0  0  0  0  0  0  0  0  0  0
    1.3800   -5.5415    0.0000 H   0  0  0  0  0  0  0  0  0  0  0  0
    2.0000   -6.1615    0.0000 H   0  0  0  0  0  0  0  0  0  0  0  0
    2.3393   -0.6640    0.0000 H   0  0  0  0  0  0  0  0  0  0  0  0
   15.1603    6.9445    0.0000 H   0  0  0  0  0  0  0  0  0  0  0  0
 32  1  1  1  0  0  0
 38  1  1  1  0  0  0
 34  2  1  1  0  0  0
 39  2  1  6  0  0  0
 35  3  1  1  0  0  0
 40  3  1  6  0  0  0
  4 35  1  0  0  0  0
  4 44  1  0  0  0  0
  5 39  1  0  0  0  0
  5 43  1  0  0  0  0
  6 38  1  0  0  0  0
  6 48  1  0  0  0  0
 45  7  1  6  0  0  0
 54  7  1  6  0  0  0
  8 50  1  0  0  0  0
  8 52  1  0  0  0  0
 36  9  1  6  0  0  0
  9102  1  0  0  0  0
 37 10  1  6  0  0  0
 10103  1  0  0  0  0
 41 11  1  1  0  0  0
 11106  1  0  0  0  0
 47 12  1  6  0  0  0
 12107  1  0  0  0  0
 13 54  1  0  0  0  0
 13 62  1  0  0  0  0
 49 14  1  1  0  0  0
 14108  1  0  0  0  0
 51 15  1  1  0  0  0
 15109  1  0  0  0  0
 52 16  1  6  0  0  0
 16112  1  0  0  0  0
 17 53  1  0  0  0  0
 17115  1  0  0  0  0
 18 55  1  0  0  0  0
 18116  1  0  0  0  0
 19 56  1  0  0  0  0
 19117  1  0  0  0  0
 57 20  1  1  0  0  0
 20118  1  0  0  0  0
 58 21  1  6  0  0  0
 21119  1  0  0  0  0
 22 59  1  0  0  0  0
 22123  1  0  0  0  0
 23 56  2  0  0  0  0
 60 24  1  6  0  0  0
 24124  1  0  0  0  0
 61 25  1  1  0  0  0
 25125  1  0  0  0  0
 26 63  2  0  0  0  0
 27 64  1  0  0  0  0
 27129  1  0  0  0  0
 28 66  1  0  0  0  0
 28130  1  0  0  0  0
 29 65  2  0  0  0  0
 33 30  1  6  0  0  0
 30 63  1  0  0  0  0
 30 90  1  0  0  0  0
 42 31  1  1  0  0  0
 31 65  1  0  0  0  0
 31 96  1  0  0  0  0
 32 33  1  0  0  0  0
 32 36  1  0  0  0  0
 32 69  1  0  0  0  0
 33 35  1  0  0  0  0
 33 70  1  0  0  0  0
 34 37  1  0  0  0  0
 34 41  1  0  0  0  0
 34 71  1  0  0  0  0
 35 72  1  0  0  0  0
 36 44  1  0  0  0  0
 36 73  1  0  0  0  0
 37 38  1  0  0  0  0
 37 74  1  0  0  0  0
 38 75  1  0  0  0  0
 39 46  1  0  0  0  0
 39 56  1  0  0  0  0
 40 45  1  0  0  0  0
 40 49  1  0  0  0  0
 40 76  1  0  0  0  0
 41 48  1  0  0  0  0
 41 77  1  0  0  0  0
 42 43  1  0  0  0  0
 42 47  1  0  0  0  0
 42 78  1  0  0  0  0
 43 51  1  0  0  0  0
 43 79  1  1  0  0  0
 44 53  1  1  0  0  0
 44 80  1  0  0  0  0
 45 50  1  0  0  0  0
 45 81  1  0  0  0  0
 46 47  1  0  0  0  0
 46 82  1  0  0  0  0
 46 83  1  0  0  0  0
 47 84  1  0  0  0  0
 48 55  1  1  0  0  0
 48 85  1  0  0  0  0
 49 52  1  0  0  0  0
 49 86  1  0  0  0  0
 50 59  1  6  0  0  0
 50 87  1  0  0  0  0
 51 58  1  0  0  0  0
 51 88  1  0  0  0  0
 52 89  1  0  0  0  0
 53 91  1  0  0  0  0
 53 92  1  0  0  0  0
 54 57  1  0  0  0  0
 54 93  1  0  0  0  0
 55 94  1  0  0  0  0
 55 95  1  0  0  0  0
 57 60  1  0  0  0  0
 57 97  1  0  0  0  0
 58 64  1  0  0  0  0
 58 98  1  0  0  0  0
 59 99  1  0  0  0  0
 59100  1  0  0  0  0
 60 61  1  0  0  0  0
 60101  1  0  0  0  0
 61 62  1  0  0  0  0
 61104  1  0  0  0  0
 62 66  1  6  0  0  0
 62105  1  0  0  0  0
 63 67  1  0  0  0  0
 64110  1  0  0  0  0
 64111  1  0  0  0  0
 65 68  1  0  0  0  0
 66113  1  0  0  0  0
 66114  1  0  0  0  0
 67120  1  0  0  0  0
 67121  1  0  0  0  0
 67122  1  0  0  0  0
 68126  1  0  0  0  0
 68127  1  0  0  0  0
 68128  1  0  0  0  0
M  END
> <PUBCHEM_COMPOUND_CID>
51351714

> <PUBCHEM_COMPOUND_CANONICALIZED>
1

> <PUBCHEM_CACTVS_COMPLEXITY>
1660

> <PUBCHEM_CACTVS_HBOND_ACCEPTOR>
29

> <PUBCHEM_CACTVS_HBOND_DONOR>
19

> <PUBCHEM_CACTVS_ROTATABLE_BOND>
18

> <PUBCHEM_CACTVS_SUBSKEYS>
AAADcfB/PgAAAAAAAAAAAAAAAAAAAAAAAAAkSJEiQAAAAAAAAAAAHgAQCAAACDzxgAcCCALABgAIAAGQGAIAAAAAAAAAAIFIAAATEBIAgAQnQAAHFgCXAAH6+a+QAAAAAAAAAAAAAAAAAAAAAAAAAAAAAA==

> <PUBCHEM_IUPAC_OPENEYE_NAME>
(2S,4S,5R,6R)-5-acetamido-2-[(2R,3R,4S,5S,6R)-2-[(2S,3R,4R,5S,6R)-3-acetamido-2-[(2R,3R,4R,5S,6R)-2,3-dihydroxy-6-(hydroxymethyl)-5-[(2S,3R,4S,5S,6R)-3,4,5-trihydroxy-6-(hydroxymethyl)tetrahydropyran-2-yl]oxy-tetrahydropyran-4-yl]oxy-5-hydroxy-6-(hydroxymethyl)tetrahydropyran-4-yl]oxy-3,5-dihydroxy-6-(hydroxymethyl)tetrahydropyran-4-yl]oxy-4-hydroxy-6-[(1R,2R)-1,2,3-trihydroxypropyl]tetrahydropyran-2-carboxylic acid

> <PUBCHEM_IUPAC_CAS_NAME>
(2S,4S,5R,6R)-5-acetamido-2-[[(2R,3R,4S,5S,6R)-2-[[(2S,3R,4R,5S,6R)-3-acetamido-2-[[(2R,3R,4R,5S,6R)-2,3-dihydroxy-6-(hydroxymethyl)-5-[[(2S,3R,4S,5S,6R)-3,4,5-trihydroxy-6-(hydroxymethyl)-2-oxanyl]oxy]-4-oxanyl]oxy]-5-hydroxy-6-(hydroxymethyl)-4-oxanyl]oxy]-3,5-dihydroxy-6-(hydroxymethyl)-4-oxanyl]oxy]-4-hydroxy-6-[(1R,2R)-1,2,3-trihydroxypropyl]-2-oxanecarboxylic acid

> <PUBCHEM_IUPAC_NAME_MARKUP>
(2<I>S</I>,4<I>S</I>,5<I>R</I>,6<I>R</I>)-5-acetamido-2-[(2<I>R</I>,3<I>R</I>,4<I>S</I>,5<I>S</I>,6<I>R</I>)-2-[(2<I>S</I>,3<I>R</I>,4<I>R</I>,5<I>S</I>,6<I>R</I>)-3-acetamido-2-[(2<I>R</I>,3<I>R</I>,4<I>R</I>,5<I>S</I>,6<I>R</I>)-2,3-dihydroxy-6-(hydroxymethyl)-5-[(2<I>S</I>,3<I>R</I>,4<I>S</I>,5<I>S</I>,6<I>R</I>)-3,4,5-trihydroxy-6-(hydroxymethyl)oxan-2-yl]oxyoxan-4-yl]oxy-5-hydroxy-6-(hydroxymethyl)oxan-4-yl]oxy-3,5-dihydroxy-6-(hydroxymethyl)oxan-4-yl]oxy-4-hydroxy-6-[(1<I>R</I>,2<I>R</I>)-1,2,3-trihydroxypropyl]oxane-2-carboxylic acid

> <PUBCHEM_IUPAC_NAME>
(2S,4S,5R,6R)-5-acetamido-2-[(2R,3R,4S,5S,6R)-2-[(2S,3R,4R,5S,6R)-3-acetamido-2-[(2R,3R,4R,5S,6R)-2,3-dihydroxy-6-(hydroxymethyl)-5-[(2S,3R,4S,5S,6R)-3,4,5-trihydroxy-6-(hydroxymethyl)oxan-2-yl]oxyoxan-4-yl]oxy-5-hydroxy-6-(hydroxymethyl)oxan-4-yl]oxy-3,5-dihydroxy-6-(hydroxymethyl)oxan-4-yl]oxy-4-hydroxy-6-[(1R,2R)-1,2,3-trihydroxypropyl]oxane-2-carboxylic acid

> <PUBCHEM_IUPAC_SYSTEMATIC_NAME>
(2S,4S,5R,6R)-5-acetamido-2-[(2R,3R,4S,5S,6R)-2-[(2R,3S,4R,5R,6S)-5-acetamido-2-(hydroxymethyl)-6-[(2R,3S,4R,5R,6R)-2-(hydroxymethyl)-3-[(2S,3R,4S,5S,6R)-6-(hydroxymethyl)-3,4,5-tris(oxidanyl)oxan-2-yl]oxy-5,6-bis(oxidanyl)oxan-4-yl]oxy-3-oxidanyl-oxan-4-yl]oxy-6-(hydroxymethyl)-3,5-bis(oxidanyl)oxan-4-yl]oxy-4-oxidanyl-6-[(1R,2R)-1,2,3-tris(oxidanyl)propyl]oxane-2-carboxylic acid

> <PUBCHEM_IUPAC_TRADITIONAL_NAME>
(2S,4S,5R,6R)-5-acetamido-2-[(2R,3R,4S,5S,6R)-2-[(2S,3R,4R,5S,6R)-3-acetamido-2-[(2R,3R,4R,5S,6R)-2,3-dihydroxy-6-methylol-5-[(2S,3R,4S,5S,6R)-3,4,5-trihydroxy-6-methylol-tetrahydropyran-2-yl]oxy-tetrahydropyran-4-yl]oxy-5-hydroxy-6-methylol-tetrahydropyran-4-yl]oxy-3,5-dihydroxy-6-methylol-tetrahydropyran-4-yl]oxy-4-hydroxy-6-[(1R,2R)-1,2,3-trihydroxypropyl]tetrahydropyran-2-carboxylic acid

> <PUBCHEM_IUPAC_INCHI>
InChI=1S/C37H62N2O29/c1-9(45)38-17-11(47)3-37(36(58)59,67-29(17)19(49)12(48)4-40)68-30-22(52)15(7-43)63-35(26(30)56)65-28-18(39-10(2)46)33(61-14(6-42)21(28)51)66-31-25(55)32(57)60-16(8-44)27(31)64-34-24(54)23(53)20(50)13(5-41)62-34/h11-35,40-44,47-57H,3-8H2,1-2H3,(H,38,45)(H,39,46)(H,58,59)/t11-,12+,13+,14+,15+,16+,17+,18+,19+,20+,21+,22-,23-,24+,25+,26+,27-,28+,29+,30-,31+,32+,33-,34-,35-,37-/m0/s1

> <PUBCHEM_IUPAC_INCHIKEY>
RRADLHBODXTHJM-WNYZNUDOSA-N

> <PUBCHEM_XLOGP3_AA>
-10.4

> <PUBCHEM_EXACT_MASS>
998.34382394

> <PUBCHEM_MOLECULAR_FORMULA>
C37H62N2O29

> <PUBCHEM_MOLECULAR_WEIGHT>
998.9

> <PUBCHEM_OPENEYE_CAN_SMILES>
CC(=O)NC1C(CC(OC1C(C(CO)O)O)(C(=O)O)OC2C(C(OC(C2O)OC3C(C(OC(C3O)CO)OC4C(C(OC(C4OC5C(C(C(C(O5)CO)O)O)O)CO)O)O)NC(=O)C)CO)O)O

> <PUBCHEM_OPENEYE_ISO_SMILES>
CC(=O)N[C@@H]1[C@H](C[C@@](O[C@H]1[C@@H]([C@@H](CO)O)O)(C(=O)O)O[C@H]2[C@H]([C@H](O[C@H]([C@@H]2O)O[C@@H]3[C@H]([C@@H](O[C@@H]([C@H]3O)CO)O[C@@H]4[C@H]([C@@H](O[C@@H]([C@@H]4O[C@H]5[C@@H]([C@H]([C@@H]([C@H](O5)CO)O)O)O)CO)O)O)NC(=O)C)CO)O)O

> <PUBCHEM_CACTVS_TPSA>
502

> <PUBCHEM_MONOISOTOPIC_WEIGHT>
998.34382394

> <PUBCHEM_TOTAL_CHARGE>
0

> <PUBCHEM_HEAVY_ATOM_COUNT>
68

> <PUBCHEM_ATOM_DEF_STEREO_COUNT>
26

> <PUBCHEM_ATOM_UDEF_STEREO_COUNT>
0

> <PUBCHEM_BOND_DEF_STEREO_COUNT>
0

> <PUBCHEM_BOND_UDEF_STEREO_COUNT>
0

> <PUBCHEM_ISOTOPIC_ATOM_COUNT>
0

> <PUBCHEM_COMPONENT_COUNT>
1

> <PUBCHEM_CACTVS_TAUTO_COUNT>
-1

> <PUBCHEM_COORDINATE_TYPE>
1
5
255

> <PUBCHEM_BONDANNOTATIONS>
32  1  5
38  1  5
37  10  6
41  11  5
47  12  6
49  14  5
51  15  5
52  16  6
34  2  5
39  2  6
57  20  5
58  21  6
60  24  6
61  25  5
35  3  5
40  3  6
33  30  6
42  31  5
43  79  5
44  53  5
48  55  5
50  59  6
62  66  6
45  7  6
54  7  6
36  9  6

$$$$
